ipss.test.plugin.core/testData/matpower/case3bus_rts_extensions.m
function mpc = case3bus_rts_extensions

mpc.version = '2';
mpc.baseMVA = 100;

mpc.bus = [
	1	3	0	0	0	0	1	1	0	10	1	1.1	0.9;
	2	1	50	20	0	0	1	1	0	10	1	1.1	0.9;
	3	1	0	0	0	0	1	1	0	10	1	1.1	0.9;
];

mpc.gen = [
	1	10	0	0	0	1	100	1	200	20	0	0	0	0	0	0	0	0	0	0	0;
	2	30	0	0	0	1	100	1	60	5	0	0	0	0	0	0	0	0	0	0	0;
	2	20	0	0	0	1	100	1	40	4	0	0	0	0	0	0	0	0	0	0	0;
];

mpc.branch = [
	1	2	0.01	0.2	0	30.5	40.5	50.5	0	0	1	-360	360;
];

mpc.gencost = [
	2	1500	0	3	0.01	10	100;
	2	2000	0	3	0.02	20	200;
	2	2500	0	3	0.03	30	300;
];

mpc.branch_name = {
	'LINE_1_2';
};

mpc.gen_name = {
	'GEN_1'	'CT'	'NG';
	'GEN_2A'	'PV'	'Solar';
	'GEN_2B'	'WIND'	'Wind';
};

mpc.dcline = [
	1 3 1 10 -9 1 -1 1 1 -100 100 -9999 9999 -9999 9999 0 0 0 0 0 0 0 0
];
